*Heading
** Job name: v1_auto_614 Model name: v1
** Generated by: Abaqus/CAE 6.14-1
*Preprint, echo=NO, model=NO, history=NO, contact=NO
*Part, name=MP
*Node
1,-1.256,1.256, 0.
2,-0.628,1.256, 0.
3,0.0,1.256, 0.
4,0.6279999999999999,1.256, 0.
5,1.256,1.256, 0.
6,-1.256,0.628, 0.
7,-0.628,0.628, 0.
8,0.0,0.628, 0.
9,0.6279999999999999,0.628, 0.
10,1.256,0.628, 0.
11,-1.256,0.0, 0.
12,-0.628,0.0, 0.
13,0.0,0.0, 0.
14,0.6279999999999999,0.0, 0.
15,1.256,0.0, 0.
16,-1.256,-0.6279999999999999, 0.
17,-0.628,-0.6279999999999999, 0.
18,0.0,-0.6279999999999999, 0.
19,0.6279999999999999,-0.6279999999999999, 0.
20,1.256,-0.6279999999999999, 0.
** ... 1555 like lines cut
*Element, type=S4
1,2,1,6,7
2,3,2,7,8
3,4,3,8,9
4,5,4,9,10
5,7,6,11,12
6,8,7,12,13
7,9,8,13,14
8,10,9,14,15
9,12,11,16,17
10,13,12,17,18
11,14,13,18,19
12,15,14,19,20
13,17,16,21,22
14,18,17,22,23
15,19,18,23,24
16,20,19,24,25
17,27,26,31,32
18,28,27,32,33
19,29,28,33,34
20,30,29,34,35
** ... 988 like lines cut
*Nset, nset=SET-1, generate
1, 1575, 1
*Elset, elset=SET-1, generate
1, 1008, 1
** Section: Section-1-SET-1
*Shell Section, elset=SET-1, composite
0.014, 3, PI-2611, 0., TOP-2611
0.001, 3, PI-2545, 0., TOP-2545
0.0002, 3, GOLD, 0., GOLD
0.001, 3, PI-2545, 0., BOT-2545
0.014, 3, PI-2611, 0., BOT-2611
*End Part
*Assembly, name=Assembly
*Instance, name=MP-1, part=MP
*End Instance
*Nset, nset=SET-1, instance=MP-1
1
6
11
16
21
176
181
186
191
196
351
356
361
366
371
526
531
536
541
546
** ... 25 like lines cut
*Nset, nset=SET-2, instance=MP-1
155
160
165
170
175
330
335
340
345
350
505
510
515
520
525
680
685
690
695
700
** ... 25 like lines cut
*Nset, nset=SET-3, instance=MP-1
1
2
3
4
5
26
27
28
29
30
51
52
53
54
55
76
77
78
79
80
** ... 15 like lines cut
*Nset, nset=SET-4, instance=MP-1
1
6
11
16
21
176
181
186
191
196
351
356
361
366
371
526
531
536
541
546
** ... 70 like lines cut
*Nset, nset=SET-5, instance=MP-1
1421
1422
1423
1424
1425
1446
1447
1448
1449
1450
1471
1472
1473
1474
1475
1496
1497
1498
1499
1500
** ... 15 like lines cut
*Nset, nset=SET-6, instance=MP-1, generate
1, 1575, 1
*Nset, nset=SET-CENTERNODES, instance=MP-1
13
38
63
88
113
138
163
188
213
238
263
288
313
338
363
388
413
438
463
488
** ... 43 like lines cut
*Element, type=CONN3D2
1, MP-1.15, MP-1.36
*Connector Section, elset=Conns-1, behavior=ConnSect-1
Axial,
*Element, type=CONN3D2
2, MP-1.40, MP-1.61
*Connector Section, elset=Conns-2, behavior=ConnSect-2
Axial,
*Element, type=CONN3D2
3, MP-1.65, MP-1.86
*Connector Section, elset=Conns-3, behavior=ConnSect-3
Axial,
*Element, type=CONN3D2
4, MP-1.90, MP-1.111
*Connector Section, elset=Conns-4, behavior=ConnSect-4
Axial,
*Element, type=CONN3D2
5, MP-1.115, MP-1.136
*Connector Section, elset=Conns-5, behavior=ConnSect-5
Axial,
*Element, type=CONN3D2
6, MP-1.140, MP-1.161
*Connector Section, elset=Conns-6, behavior=ConnSect-6
Axial,
*Element, type=CONN3D2
7, MP-1.190, MP-1.211
*Connector Section, elset=Conns-7, behavior=ConnSect-7
Axial,
*Element, type=CONN3D2
8, MP-1.215, MP-1.236
*Connector Section, elset=Conns-8, behavior=ConnSect-8
Axial,
*Element, type=CONN3D2
9, MP-1.240, MP-1.261
*Connector Section, elset=Conns-9, behavior=ConnSect-9
Axial,
*Element, type=CONN3D2
10, MP-1.265, MP-1.286
*Connector Section, elset=Conns-10, behavior=ConnSect-10
Axial,
*Element, type=CONN3D2
11, MP-1.290, MP-1.311
*Connector Section, elset=Conns-11, behavior=ConnSect-11
Axial,
*Element, type=CONN3D2
12, MP-1.315, MP-1.336
*Connector Section, elset=Conns-12, behavior=ConnSect-12
Axial,
*Element, type=CONN3D2
13, MP-1.365, MP-1.386
*Connector Section, elset=Conns-13, behavior=ConnSect-13
Axial,
*Element, type=CONN3D2
14, MP-1.390, MP-1.411
*Connector Section, elset=Conns-14, behavior=ConnSect-14
Axial,
*Element, type=CONN3D2
15, MP-1.415, MP-1.436
*Connector Section, elset=Conns-15, behavior=ConnSect-15
Axial,
*Element, type=CONN3D2
16, MP-1.440, MP-1.461
*Connector Section, elset=Conns-16, behavior=ConnSect-16
Axial,
*Element, type=CONN3D2
17, MP-1.465, MP-1.486
*Connector Section, elset=Conns-17, behavior=ConnSect-17
Axial,
*Element, type=CONN3D2
18, MP-1.490, MP-1.511
*Connector Section, elset=Conns-18, behavior=ConnSect-18
Axial,
*Element, type=CONN3D2
19, MP-1.540, MP-1.561
*Connector Section, elset=Conns-19, behavior=ConnSect-19
Axial,
*Element, type=CONN3D2
20, MP-1.565, MP-1.586
*Connector Section, elset=Conns-20, behavior=ConnSect-20
Axial,
*Element, type=CONN3D2
21, MP-1.590, MP-1.611
*Connector Section, elset=Conns-21, behavior=ConnSect-21
Axial,
*Element, type=CONN3D2
22, MP-1.615, MP-1.636
*Connector Section, elset=Conns-22, behavior=ConnSect-22
Axial,
*Element, type=CONN3D2
23, MP-1.640, MP-1.661
*Connector Section, elset=Conns-23, behavior=ConnSect-23
Axial,
*Element, type=CONN3D2
24, MP-1.665, MP-1.686
*Connector Section, elset=Conns-24, behavior=ConnSect-24
Axial,
*Element, type=CONN3D2
25, MP-1.715, MP-1.736
*Connector Section, elset=Conns-25, behavior=ConnSect-25
Axial,
*Element, type=CONN3D2
26, MP-1.740, MP-1.761
*Connector Section, elset=Conns-26, behavior=ConnSect-26
Axial,
*Element, type=CONN3D2
27, MP-1.765, MP-1.786
*Connector Section, elset=Conns-27, behavior=ConnSect-27
Axial,
*Element, type=CONN3D2
28, MP-1.790, MP-1.811
*Connector Section, elset=Conns-28, behavior=ConnSect-28
Axial,
*Element, type=CONN3D2
29, MP-1.815, MP-1.836
*Connector Section, elset=Conns-29, behavior=ConnSect-29
Axial,
*Element, type=CONN3D2
30, MP-1.840, MP-1.861
*Connector Section, elset=Conns-30, behavior=ConnSect-30
Axial,
*Element, type=CONN3D2
31, MP-1.890, MP-1.911
*Connector Section, elset=Conns-31, behavior=ConnSect-31
Axial,
*Element, type=CONN3D2
32, MP-1.915, MP-1.936
*Connector Section, elset=Conns-32, behavior=ConnSect-32
Axial,
*Element, type=CONN3D2
33, MP-1.940, MP-1.961
*Connector Section, elset=Conns-33, behavior=ConnSect-33
Axial,
*Element, type=CONN3D2
34, MP-1.965, MP-1.986
*Connector Section, elset=Conns-34, behavior=ConnSect-34
Axial,
*Element, type=CONN3D2
35, MP-1.990, MP-1.1011
*Connector Section, elset=Conns-35, behavior=ConnSect-35
Axial,
*Element, type=CONN3D2
36, MP-1.1015, MP-1.1036
*Connector Section, elset=Conns-36, behavior=ConnSect-36
Axial,
*Element, type=CONN3D2
37, MP-1.1065, MP-1.1086
*Connector Section, elset=Conns-37, behavior=ConnSect-37
Axial,
*Element, type=CONN3D2
38, MP-1.1090, MP-1.1111
*Connector Section, elset=Conns-38, behavior=ConnSect-38
Axial,
*Element, type=CONN3D2
39, MP-1.1115, MP-1.1136
*Connector Section, elset=Conns-39, behavior=ConnSect-39
Axial,
*Element, type=CONN3D2
40, MP-1.1140, MP-1.1161
*Connector Section, elset=Conns-40, behavior=ConnSect-40
Axial,
*Element, type=CONN3D2
41, MP-1.1165, MP-1.1186
*Connector Section, elset=Conns-41, behavior=ConnSect-41
Axial,
*Element, type=CONN3D2
42, MP-1.1190, MP-1.1211
*Connector Section, elset=Conns-42, behavior=ConnSect-42
Axial,
*Element, type=CONN3D2
43, MP-1.1240, MP-1.1261
*Connector Section, elset=Conns-43, behavior=ConnSect-43
Axial,
*Element, type=CONN3D2
44, MP-1.1265, MP-1.1286
*Connector Section, elset=Conns-44, behavior=ConnSect-44
Axial,
*Element, type=CONN3D2
45, MP-1.1290, MP-1.1311
*Connector Section, elset=Conns-45, behavior=ConnSect-45
Axial,
*Element, type=CONN3D2
46, MP-1.1315, MP-1.1336
*Connector Section, elset=Conns-46, behavior=ConnSect-46
Axial,
*Element, type=CONN3D2
47, MP-1.1340, MP-1.1361
*Connector Section, elset=Conns-47, behavior=ConnSect-47
Axial,
*Element, type=CONN3D2
48, MP-1.1365, MP-1.1386
*Connector Section, elset=Conns-48, behavior=ConnSect-48
Axial,
*Element, type=CONN3D2
49, MP-1.1415, MP-1.1436
*Connector Section, elset=Conns-49, behavior=ConnSect-49
Axial,
*Element, type=CONN3D2
50, MP-1.1440, MP-1.1461
*Connector Section, elset=Conns-50, behavior=ConnSect-50
Axial,
*Element, type=CONN3D2
51, MP-1.1465, MP-1.1486
*Connector Section, elset=Conns-51, behavior=ConnSect-51
Axial,
*Element, type=CONN3D2
52, MP-1.1490, MP-1.1511
*Connector Section, elset=Conns-52, behavior=ConnSect-52
Axial,
*Element, type=CONN3D2
53, MP-1.1515, MP-1.1536
*Connector Section, elset=Conns-53, behavior=ConnSect-53
Axial,
*Element, type=CONN3D2
54, MP-1.1540, MP-1.1561
*Connector Section, elset=Conns-54, behavior=ConnSect-54
Axial,
*Element, type=CONN3D2
55, MP-1.23, MP-1.178
*Connector Section, elset=Conns-55, behavior=ConnSect-55
Axial,
*Element, type=CONN3D2
56, MP-1.198, MP-1.353
*Connector Section, elset=Conns-56, behavior=ConnSect-56
Axial,
*Element, type=CONN3D2
57, MP-1.373, MP-1.528
*Connector Section, elset=Conns-57, behavior=ConnSect-57
Axial,
*Element, type=CONN3D2
58, MP-1.548, MP-1.703
*Connector Section, elset=Conns-58, behavior=ConnSect-58
Axial,
*Element, type=CONN3D2
59, MP-1.723, MP-1.878
*Connector Section, elset=Conns-59, behavior=ConnSect-59
Axial,
*Element, type=CONN3D2
60, MP-1.898, MP-1.1053
*Connector Section, elset=Conns-60, behavior=ConnSect-60
Axial,
*Element, type=CONN3D2
61, MP-1.1073, MP-1.1228
*Connector Section, elset=Conns-61, behavior=ConnSect-61
Axial,
*Element, type=CONN3D2
62, MP-1.1248, MP-1.1403
*Connector Section, elset=Conns-62, behavior=ConnSect-62
Axial,
*Element, type=CONN3D2
63, MP-1.48, MP-1.203
*Connector Section, elset=Conns-63, behavior=ConnSect-63
Axial,
*Element, type=CONN3D2
64, MP-1.223, MP-1.378
*Connector Section, elset=Conns-64, behavior=ConnSect-64
Axial,
*Element, type=CONN3D2
65, MP-1.398, MP-1.553
*Connector Section, elset=Conns-65, behavior=ConnSect-65
Axial,
*Element, type=CONN3D2
66, MP-1.573, MP-1.728
*Connector Section, elset=Conns-66, behavior=ConnSect-66
Axial,
*Element, type=CONN3D2
67, MP-1.748, MP-1.903
*Connector Section, elset=Conns-67, behavior=ConnSect-67
Axial,
*Element, type=CONN3D2
68, MP-1.923, MP-1.1078
*Connector Section, elset=Conns-68, behavior=ConnSect-68
Axial,
*Element, type=CONN3D2
69, MP-1.1098, MP-1.1253
*Connector Section, elset=Conns-69, behavior=ConnSect-69
Axial,
*Element, type=CONN3D2
70, MP-1.1273, MP-1.1428
*Connector Section, elset=Conns-70, behavior=ConnSect-70
Axial,
*Element, type=CONN3D2
71, MP-1.73, MP-1.228
*Connector Section, elset=Conns-71, behavior=ConnSect-71
Axial,
*Element, type=CONN3D2
72, MP-1.248, MP-1.403
*Connector Section, elset=Conns-72, behavior=ConnSect-72
Axial,
*Element, type=CONN3D2
73, MP-1.423, MP-1.578
*Connector Section, elset=Conns-73, behavior=ConnSect-73
Axial,
*Element, type=CONN3D2
74, MP-1.598, MP-1.753
*Connector Section, elset=Conns-74, behavior=ConnSect-74
Axial,
*Element, type=CONN3D2
75, MP-1.773, MP-1.928
*Connector Section, elset=Conns-75, behavior=ConnSect-75
Axial,
*Element, type=CONN3D2
76, MP-1.948, MP-1.1103
*Connector Section, elset=Conns-76, behavior=ConnSect-76
Axial,
*Element, type=CONN3D2
77, MP-1.1123, MP-1.1278
*Connector Section, elset=Conns-77, behavior=ConnSect-77
Axial,
*Element, type=CONN3D2
78, MP-1.1298, MP-1.1453
*Connector Section, elset=Conns-78, behavior=ConnSect-78
Axial,
*Element, type=CONN3D2
79, MP-1.98, MP-1.253
*Connector Section, elset=Conns-79, behavior=ConnSect-79
Axial,
*Element, type=CONN3D2
80, MP-1.273, MP-1.428
*Connector Section, elset=Conns-80, behavior=ConnSect-80
Axial,
*Element, type=CONN3D2
81, MP-1.448, MP-1.603
*Connector Section, elset=Conns-81, behavior=ConnSect-81
Axial,
*Element, type=CONN3D2
82, MP-1.623, MP-1.778
*Connector Section, elset=Conns-82, behavior=ConnSect-82
Axial,
*Element, type=CONN3D2
83, MP-1.798, MP-1.953
*Connector Section, elset=Conns-83, behavior=ConnSect-83
Axial,
*Element, type=CONN3D2
84, MP-1.973, MP-1.1128
*Connector Section, elset=Conns-84, behavior=ConnSect-84
Axial,
*Element, type=CONN3D2
85, MP-1.1148, MP-1.1303
*Connector Section, elset=Conns-85, behavior=ConnSect-85
Axial,
*Element, type=CONN3D2
86, MP-1.1323, MP-1.1478
*Connector Section, elset=Conns-86, behavior=ConnSect-86
Axial,
*Element, type=CONN3D2
87, MP-1.123, MP-1.278
*Connector Section, elset=Conns-87, behavior=ConnSect-87
Axial,
*Element, type=CONN3D2
88, MP-1.298, MP-1.453
*Connector Section, elset=Conns-88, behavior=ConnSect-88
Axial,
*Element, type=CONN3D2
89, MP-1.473, MP-1.628
*Connector Section, elset=Conns-89, behavior=ConnSect-89
Axial,
*Element, type=CONN3D2
90, MP-1.648, MP-1.803
*Connector Section, elset=Conns-90, behavior=ConnSect-90
Axial,
*Element, type=CONN3D2
91, MP-1.823, MP-1.978
*Connector Section, elset=Conns-91, behavior=ConnSect-91
Axial,
*Element, type=CONN3D2
92, MP-1.998, MP-1.1153
*Connector Section, elset=Conns-92, behavior=ConnSect-92
Axial,
*Element, type=CONN3D2
93, MP-1.1173, MP-1.1328
*Connector Section, elset=Conns-93, behavior=ConnSect-93
Axial,
*Element, type=CONN3D2
94, MP-1.1348, MP-1.1503
*Connector Section, elset=Conns-94, behavior=ConnSect-94
Axial,
*Element, type=CONN3D2
95, MP-1.148, MP-1.303
*Connector Section, elset=Conns-95, behavior=ConnSect-95
Axial,
*Element, type=CONN3D2
96, MP-1.323, MP-1.478
*Connector Section, elset=Conns-96, behavior=ConnSect-96
Axial,
*Element, type=CONN3D2
97, MP-1.498, MP-1.653
*Connector Section, elset=Conns-97, behavior=ConnSect-97
Axial,
*Element, type=CONN3D2
98, MP-1.673, MP-1.828
*Connector Section, elset=Conns-98, behavior=ConnSect-98
Axial,
*Element, type=CONN3D2
99, MP-1.848, MP-1.1003
*Connector Section, elset=Conns-99, behavior=ConnSect-99
Axial,
*Element, type=CONN3D2
100, MP-1.1023, MP-1.1178
*Connector Section, elset=Conns-100, behavior=ConnSect-100
Axial,
*Element, type=CONN3D2
101, MP-1.1198, MP-1.1353
*Connector Section, elset=Conns-101, behavior=ConnSect-101
Axial,
*Element, type=CONN3D2
102, MP-1.1373, MP-1.1528
*Connector Section, elset=Conns-102, behavior=ConnSect-102
Axial,
*Element, type=CONN3D2
103, MP-1.173, MP-1.328
*Connector Section, elset=Conns-103, behavior=ConnSect-103
Axial,
*Element, type=CONN3D2
104, MP-1.348, MP-1.503
*Connector Section, elset=Conns-104, behavior=ConnSect-104
Axial,
*Element, type=CONN3D2
105, MP-1.523, MP-1.678
*Connector Section, elset=Conns-105, behavior=ConnSect-105
Axial,
*Element, type=CONN3D2
106, MP-1.698, MP-1.853
*Connector Section, elset=Conns-106, behavior=ConnSect-106
Axial,
*Element, type=CONN3D2
107, MP-1.873, MP-1.1028
*Connector Section, elset=Conns-107, behavior=ConnSect-107
Axial,
*Element, type=CONN3D2
108, MP-1.1048, MP-1.1203
*Connector Section, elset=Conns-108, behavior=ConnSect-108
Axial,
*Element, type=CONN3D2
109, MP-1.1223, MP-1.1378
*Connector Section, elset=Conns-109, behavior=ConnSect-109
Axial,
*Element, type=CONN3D2
110, MP-1.1398, MP-1.1553
*Connector Section, elset=Conns-110, behavior=ConnSect-110
Axial,
*Elset, elset=Conns-1
1,
*Elset, elset=Conns-2
2,
*Elset, elset=Conns-3
3,
*Elset, elset=Conns-4
4,
*Elset, elset=Conns-5
5,
*Elset, elset=Conns-6
6,
*Elset, elset=Conns-7
7,
*Elset, elset=Conns-8
8,
*Elset, elset=Conns-9
9,
*Elset, elset=Conns-10
10,
*Elset, elset=Conns-11
11,
*Elset, elset=Conns-12
12,
*Elset, elset=Conns-13
13,
*Elset, elset=Conns-14
14,
*Elset, elset=Conns-15
15,
*Elset, elset=Conns-16
16,
*Elset, elset=Conns-17
17,
*Elset, elset=Conns-18
18,
*Elset, elset=Conns-19
19,
*Elset, elset=Conns-20
20,
** ... 180 like lines cut
*Nset, nset=Wire-1-Set-1, instance=MP-1
15 36
*Elset, elset=Wire-1-Set-1
1
*Nset, nset=Wire-2-Set-1, instance=MP-1
40 61
*Elset, elset=Wire-2-Set-1
2
*Nset, nset=Wire-3-Set-1, instance=MP-1
65 86
*Elset, elset=Wire-3-Set-1
3
*Nset, nset=Wire-4-Set-1, instance=MP-1
90 111
*Elset, elset=Wire-4-Set-1
4
*Nset, nset=Wire-5-Set-1, instance=MP-1
115 136
*Elset, elset=Wire-5-Set-1
5
*Nset, nset=Wire-6-Set-1, instance=MP-1
140 161
*Elset, elset=Wire-6-Set-1
6
*Nset, nset=Wire-7-Set-1, instance=MP-1
190 211
*Elset, elset=Wire-7-Set-1
7
*Nset, nset=Wire-8-Set-1, instance=MP-1
215 236
*Elset, elset=Wire-8-Set-1
8
*Nset, nset=Wire-9-Set-1, instance=MP-1
240 261
*Elset, elset=Wire-9-Set-1
9
*Nset, nset=Wire-10-Set-1, instance=MP-1
265 286
*Elset, elset=Wire-10-Set-1
10
*Nset, nset=Wire-11-Set-1, instance=MP-1
290 311
*Elset, elset=Wire-11-Set-1
11
*Nset, nset=Wire-12-Set-1, instance=MP-1
315 336
*Elset, elset=Wire-12-Set-1
12
*Nset, nset=Wire-13-Set-1, instance=MP-1
365 386
*Elset, elset=Wire-13-Set-1
13
*Nset, nset=Wire-14-Set-1, instance=MP-1
390 411
*Elset, elset=Wire-14-Set-1
14
*Nset, nset=Wire-15-Set-1, instance=MP-1
415 436
*Elset, elset=Wire-15-Set-1
15
*Nset, nset=Wire-16-Set-1, instance=MP-1
440 461
*Elset, elset=Wire-16-Set-1
16
*Nset, nset=Wire-17-Set-1, instance=MP-1
465 486
*Elset, elset=Wire-17-Set-1
17
*Nset, nset=Wire-18-Set-1, instance=MP-1
490 511
*Elset, elset=Wire-18-Set-1
18
*Nset, nset=Wire-19-Set-1, instance=MP-1
540 561
*Elset, elset=Wire-19-Set-1
19
*Nset, nset=Wire-20-Set-1, instance=MP-1
565 586
*Elset, elset=Wire-20-Set-1
20
*Nset, nset=Wire-21-Set-1, instance=MP-1
590 611
*Elset, elset=Wire-21-Set-1
21
*Nset, nset=Wire-22-Set-1, instance=MP-1
615 636
*Elset, elset=Wire-22-Set-1
22
*Nset, nset=Wire-23-Set-1, instance=MP-1
640 661
*Elset, elset=Wire-23-Set-1
23
*Nset, nset=Wire-24-Set-1, instance=MP-1
665 686
*Elset, elset=Wire-24-Set-1
24
*Nset, nset=Wire-25-Set-1, instance=MP-1
715 736
*Elset, elset=Wire-25-Set-1
25
*Nset, nset=Wire-26-Set-1, instance=MP-1
740 761
*Elset, elset=Wire-26-Set-1
26
*Nset, nset=Wire-27-Set-1, instance=MP-1
765 786
*Elset, elset=Wire-27-Set-1
27
*Nset, nset=Wire-28-Set-1, instance=MP-1
790 811
*Elset, elset=Wire-28-Set-1
28
*Nset, nset=Wire-29-Set-1, instance=MP-1
815 836
*Elset, elset=Wire-29-Set-1
29
*Nset, nset=Wire-30-Set-1, instance=MP-1
840 861
*Elset, elset=Wire-30-Set-1
30
*Nset, nset=Wire-31-Set-1, instance=MP-1
890 911
*Elset, elset=Wire-31-Set-1
31
*Nset, nset=Wire-32-Set-1, instance=MP-1
915 936
*Elset, elset=Wire-32-Set-1
32
*Nset, nset=Wire-33-Set-1, instance=MP-1
940 961
*Elset, elset=Wire-33-Set-1
33
*Nset, nset=Wire-34-Set-1, instance=MP-1
965 986
*Elset, elset=Wire-34-Set-1
34
*Nset, nset=Wire-35-Set-1, instance=MP-1
990 1011
*Elset, elset=Wire-35-Set-1
35
*Nset, nset=Wire-36-Set-1, instance=MP-1
1015 1036
*Elset, elset=Wire-36-Set-1
36
*Nset, nset=Wire-37-Set-1, instance=MP-1
1065 1086
*Elset, elset=Wire-37-Set-1
37
*Nset, nset=Wire-38-Set-1, instance=MP-1
1090 1111
*Elset, elset=Wire-38-Set-1
38
*Nset, nset=Wire-39-Set-1, instance=MP-1
1115 1136
*Elset, elset=Wire-39-Set-1
39
*Nset, nset=Wire-40-Set-1, instance=MP-1
1140 1161
*Elset, elset=Wire-40-Set-1
40
*Nset, nset=Wire-41-Set-1, instance=MP-1
1165 1186
*Elset, elset=Wire-41-Set-1
41
*Nset, nset=Wire-42-Set-1, instance=MP-1
1190 1211
*Elset, elset=Wire-42-Set-1
42
*Nset, nset=Wire-43-Set-1, instance=MP-1
1240 1261
*Elset, elset=Wire-43-Set-1
43
*Nset, nset=Wire-44-Set-1, instance=MP-1
1265 1286
*Elset, elset=Wire-44-Set-1
44
*Nset, nset=Wire-45-Set-1, instance=MP-1
1290 1311
*Elset, elset=Wire-45-Set-1
45
*Nset, nset=Wire-46-Set-1, instance=MP-1
1315 1336
*Elset, elset=Wire-46-Set-1
46
*Nset, nset=Wire-47-Set-1, instance=MP-1
1340 1361
*Elset, elset=Wire-47-Set-1
47
*Nset, nset=Wire-48-Set-1, instance=MP-1
1365 1386
*Elset, elset=Wire-48-Set-1
48
*Nset, nset=Wire-49-Set-1, instance=MP-1
1415 1436
*Elset, elset=Wire-49-Set-1
49
*Nset, nset=Wire-50-Set-1, instance=MP-1
1440 1461
*Elset, elset=Wire-50-Set-1
50
*Nset, nset=Wire-51-Set-1, instance=MP-1
1465 1486
*Elset, elset=Wire-51-Set-1
51
*Nset, nset=Wire-52-Set-1, instance=MP-1
1490 1511
*Elset, elset=Wire-52-Set-1
52
*Nset, nset=Wire-53-Set-1, instance=MP-1
1515 1536
*Elset, elset=Wire-53-Set-1
53
*Nset, nset=Wire-54-Set-1, instance=MP-1
1540 1561
*Elset, elset=Wire-54-Set-1
54
*Nset, nset=Wire-55-Set-1, instance=MP-1
23 178
*Elset, elset=Wire-55-Set-1
55
*Nset, nset=Wire-56-Set-1, instance=MP-1
198 353
*Elset, elset=Wire-56-Set-1
56
*Nset, nset=Wire-57-Set-1, instance=MP-1
373 528
*Elset, elset=Wire-57-Set-1
57
*Nset, nset=Wire-58-Set-1, instance=MP-1
548 703
*Elset, elset=Wire-58-Set-1
58
*Nset, nset=Wire-59-Set-1, instance=MP-1
723 878
*Elset, elset=Wire-59-Set-1
59
*Nset, nset=Wire-60-Set-1, instance=MP-1
898 1053
*Elset, elset=Wire-60-Set-1
60
*Nset, nset=Wire-61-Set-1, instance=MP-1
1073 1228
*Elset, elset=Wire-61-Set-1
61
*Nset, nset=Wire-62-Set-1, instance=MP-1
1248 1403
*Elset, elset=Wire-62-Set-1
62
*Nset, nset=Wire-63-Set-1, instance=MP-1
48 203
*Elset, elset=Wire-63-Set-1
63
*Nset, nset=Wire-64-Set-1, instance=MP-1
223 378
*Elset, elset=Wire-64-Set-1
64
*Nset, nset=Wire-65-Set-1, instance=MP-1
398 553
*Elset, elset=Wire-65-Set-1
65
*Nset, nset=Wire-66-Set-1, instance=MP-1
573 728
*Elset, elset=Wire-66-Set-1
66
*Nset, nset=Wire-67-Set-1, instance=MP-1
748 903
*Elset, elset=Wire-67-Set-1
67
*Nset, nset=Wire-68-Set-1, instance=MP-1
923 1078
*Elset, elset=Wire-68-Set-1
68
*Nset, nset=Wire-69-Set-1, instance=MP-1
1098 1253
*Elset, elset=Wire-69-Set-1
69
*Nset, nset=Wire-70-Set-1, instance=MP-1
1273 1428
*Elset, elset=Wire-70-Set-1
70
*Nset, nset=Wire-71-Set-1, instance=MP-1
73 228
*Elset, elset=Wire-71-Set-1
71
*Nset, nset=Wire-72-Set-1, instance=MP-1
248 403
*Elset, elset=Wire-72-Set-1
72
*Nset, nset=Wire-73-Set-1, instance=MP-1
423 578
*Elset, elset=Wire-73-Set-1
73
*Nset, nset=Wire-74-Set-1, instance=MP-1
598 753
*Elset, elset=Wire-74-Set-1
74
*Nset, nset=Wire-75-Set-1, instance=MP-1
773 928
*Elset, elset=Wire-75-Set-1
75
*Nset, nset=Wire-76-Set-1, instance=MP-1
948 1103
*Elset, elset=Wire-76-Set-1
76
*Nset, nset=Wire-77-Set-1, instance=MP-1
1123 1278
*Elset, elset=Wire-77-Set-1
77
*Nset, nset=Wire-78-Set-1, instance=MP-1
1298 1453
*Elset, elset=Wire-78-Set-1
78
*Nset, nset=Wire-79-Set-1, instance=MP-1
98 253
*Elset, elset=Wire-79-Set-1
79
*Nset, nset=Wire-80-Set-1, instance=MP-1
273 428
*Elset, elset=Wire-80-Set-1
80
*Nset, nset=Wire-81-Set-1, instance=MP-1
448 603
*Elset, elset=Wire-81-Set-1
81
*Nset, nset=Wire-82-Set-1, instance=MP-1
623 778
*Elset, elset=Wire-82-Set-1
82
*Nset, nset=Wire-83-Set-1, instance=MP-1
798 953
*Elset, elset=Wire-83-Set-1
83
*Nset, nset=Wire-84-Set-1, instance=MP-1
973 1128
*Elset, elset=Wire-84-Set-1
84
*Nset, nset=Wire-85-Set-1, instance=MP-1
1148 1303
*Elset, elset=Wire-85-Set-1
85
*Nset, nset=Wire-86-Set-1, instance=MP-1
1323 1478
*Elset, elset=Wire-86-Set-1
86
*Nset, nset=Wire-87-Set-1, instance=MP-1
123 278
*Elset, elset=Wire-87-Set-1
87
*Nset, nset=Wire-88-Set-1, instance=MP-1
298 453
*Elset, elset=Wire-88-Set-1
88
*Nset, nset=Wire-89-Set-1, instance=MP-1
473 628
*Elset, elset=Wire-89-Set-1
89
*Nset, nset=Wire-90-Set-1, instance=MP-1
648 803
*Elset, elset=Wire-90-Set-1
90
*Nset, nset=Wire-91-Set-1, instance=MP-1
823 978
*Elset, elset=Wire-91-Set-1
91
*Nset, nset=Wire-92-Set-1, instance=MP-1
998 1153
*Elset, elset=Wire-92-Set-1
92
*Nset, nset=Wire-93-Set-1, instance=MP-1
1173 1328
*Elset, elset=Wire-93-Set-1
93
*Nset, nset=Wire-94-Set-1, instance=MP-1
1348 1503
*Elset, elset=Wire-94-Set-1
94
*Nset, nset=Wire-95-Set-1, instance=MP-1
148 303
*Elset, elset=Wire-95-Set-1
95
*Nset, nset=Wire-96-Set-1, instance=MP-1
323 478
*Elset, elset=Wire-96-Set-1
96
*Nset, nset=Wire-97-Set-1, instance=MP-1
498 653
*Elset, elset=Wire-97-Set-1
97
*Nset, nset=Wire-98-Set-1, instance=MP-1
673 828
*Elset, elset=Wire-98-Set-1
98
*Nset, nset=Wire-99-Set-1, instance=MP-1
848 1003
*Elset, elset=Wire-99-Set-1
99
*Nset, nset=Wire-100-Set-1, instance=MP-1
1023 1178
*Elset, elset=Wire-100-Set-1
100
*Nset, nset=Wire-101-Set-1, instance=MP-1
1198 1353
*Elset, elset=Wire-101-Set-1
101
*Nset, nset=Wire-102-Set-1, instance=MP-1
1373 1528
*Elset, elset=Wire-102-Set-1
102
*Nset, nset=Wire-103-Set-1, instance=MP-1
173 328
*Elset, elset=Wire-103-Set-1
103
*Nset, nset=Wire-104-Set-1, instance=MP-1
348 503
*Elset, elset=Wire-104-Set-1
104
*Nset, nset=Wire-105-Set-1, instance=MP-1
523 678
*Elset, elset=Wire-105-Set-1
105
*Nset, nset=Wire-106-Set-1, instance=MP-1
698 853
*Elset, elset=Wire-106-Set-1
106
*Nset, nset=Wire-107-Set-1, instance=MP-1
873 1028
*Elset, elset=Wire-107-Set-1
107
*Nset, nset=Wire-108-Set-1, instance=MP-1
1048 1203
*Elset, elset=Wire-108-Set-1
108
*Nset, nset=Wire-109-Set-1, instance=MP-1
1223 1378
*Elset, elset=Wire-109-Set-1
109
*Nset, nset=Wire-110-Set-1, instance=MP-1
1398 1553
*Elset, elset=Wire-110-Set-1
110
*End Assembly
*Connector Behavior, name=ConnSect-1
*Connector Elasticity, nonlinear, component=1
0.0, 0.0
0.3433890742599033, 1.033696
0.7042854122119024, 2.067392
1.088799472199753, 3.101088
1.5212653670459986, 4.134784
2.0276231225579977, 5.16848
2.648072550073266, 6.202176
3.4412226523272693, 7.235871999999999
4.505316319409758, 8.269568
6.041676388122141, 9.303264
8.471555192954838, 10.33696
127.07332789432257, 20.67392
*Connector Behavior, name=ConnSect-2
*Connector Elasticity, nonlinear, component=1
0.0, 0.0
0.3198318154318258, 1.04658
0.6557958840858191, 2.09316
1.0137027129530907, 3.1397399999999998
1.4152184303384274, 4.18632
1.8847640603780746, 5.2329
2.4596808361820877, 6.2794799999999995
3.1954824225977063, 7.32606
4.184447170700878, 8.37264
5.619132425636053, 9.41922
7.898578769527376, 10.4658
118.47868154291064, 20.9316
*Connector Behavior, name=ConnSect-3
*Connector Elasticity, nonlinear, component=1
0.0, 0.0
0.10292681508872192, 1.247412
0.21038524209870957, 2.494824
0.3258347715018317, 3.7422359999999997
0.4539310612017289, 4.989648
0.6032302917446941, 6.23706
0.7857770833652467, 7.484471999999999
1.0200510587310418, 8.731883999999999
1.3368016516324133, 9.979296
1.811034744605422, 11.226707999999999
2.598377177491784, 12.47412
38.97565766237676, 24.94824
*Connector Behavior, name=ConnSect-4
*Connector Elasticity, nonlinear, component=1
0.0, 0.0
0.1283008350583259, 1.083105
0.2623162254167255, 2.16621
0.4062265361426398, 3.249315
0.566065609746147, 4.33242
0.7526505214627832, 5.415525
0.9806219168240204, 6.49863
1.2730668822769076, 7.581734999999999
1.6663738642819226, 8.66484
2.248524106107652, 9.747945
3.194392193108797, 10.83105
47.915882896631956, 21.6621
*Connector Behavior, name=ConnSect-5
*Connector Elasticity, nonlinear, component=1
0.0, 0.0
0.26238698410452344, 1.075329
0.5375969340093434, 2.150658
0.8309638360515237, 3.225987
1.15837377961725, 4.301316
1.540424709673971, 5.376645
2.0074764324817806, 6.451974
2.6064665871672332, 7.527303000000001
3.413613303564489, 8.602632
4.595610371325165, 9.677961
6.489746738225222, 10.75329
97.34620107337832, 21.50658
*Connector Behavior, name=ConnSect-6
*Connector Elasticity, nonlinear, component=1
0.0, 0.0
0.2726963612076361, 1.077702
0.558816573175136, 2.155404
0.863742534420453, 3.2331060000000003
1.2042134767398238, 4.310808
1.6015824803616852, 5.38851
2.0874156325589865, 6.4662120000000005
2.71029828581959, 7.543914000000001
3.5494394251145422, 8.621616
4.776387359015644, 9.699318
6.7397544626146555, 10.77702
101.09631693921983, 21.55404
*Connector Behavior, name=ConnSect-7
*Connector Elasticity, nonlinear, component=1
0.0, 0.0
0.2579567262728233, 1.078463
0.5284820872475393, 2.156926
0.8168689964804798, 3.235389
1.138535953941755, 4.313852
1.513794413767755, 5.392315
1.9724601588677615, 6.470778
2.5608213036321104, 7.549241
3.3538698335178196, 8.627704
4.516325716394931, 9.706166999999999
6.3807383412495255, 10.78463
95.71107511874288, 21.56926
*Connector Behavior, name=ConnSect-8
*Connector Elasticity, nonlinear, component=1
0.0, 0.0
0.09177418178296648, 1.091313
0.18740609448286705, 2.182626
0.29072467441437766, 3.273939
0.4055902172694914, 4.365252
0.5399983638199046, 5.456565
0.7044237281661481, 6.547878
0.9149910329142585, 7.639191000000001
1.19712101877667, 8.730504
1.6154513286892325, 9.821817
2.2995904146227986, 10.91313
34.49385621934198, 21.82626
*Connector Behavior, name=ConnSect-9
*Connector Elasticity, nonlinear, component=1
0.0, 0.0
0.012384709862089949, 1.622757
0.02440669049974531, 3.245514
0.03845557785098208, 4.868271
0.0557038538318011, 6.491028
0.07606037343066419, 8.113785
0.10245098565064836, 9.736542
0.1362248895020457, 11.359299
0.18405935406917706, 12.982056
0.27718409910448827, 14.604813000000002
0.49392088840249926, 16.22757
7.408813326037489, 32.45514
*Connector Behavior, name=ConnSect-10
*Connector Elasticity, nonlinear, component=1
0.0, 0.0
0.1677247928455472, 1.059898
0.34315555240027606, 2.119796
0.5308978870743886, 3.179694
0.7393395935650915, 4.239592
0.9823574509937316, 5.29949
1.2790714390575886, 6.359388
1.6600594972260296, 7.419286
2.1733784524258226, 8.479184
2.9319844907149673, 9.539081999999999
4.158669617027044, 10.59898
62.380044255405664, 21.19796
*Connector Behavior, name=ConnSect-11
*Connector Elasticity, nonlinear, component=1
0.0, 0.0
0.04683398401539307, 1.255972
0.09525614586891606, 2.511944
0.1482745210523717, 3.7679160000000005
0.20781673811143264, 5.023888
0.2777338340820279, 6.27986
0.3639424903667532, 7.535832000000001
0.47415229346370324, 8.791804
0.6224921526154503, 10.047776
0.8502863784087822, 11.303748
1.2483254249673337, 12.55972
18.724881374510005, 25.11944
*Connector Behavior, name=ConnSect-12
*Connector Elasticity, nonlinear, component=1
0.0, 0.0
0.03914024091500323, 1.247191
0.07946220648591407, 2.494382
0.12393844372127205, 3.741573
0.17408729036105797, 4.988764
0.23315018552239053, 6.235955
0.3061718962271698, 7.483146
0.39937443943927065, 8.730337
0.524469833180774, 9.977528
0.7178610394475982, 11.224718999999999
1.0604607086861506, 12.47191
15.90691063029226, 24.94382
*Connector Behavior, name=ConnSect-13
*Connector Elasticity, nonlinear, component=1
0.0, 0.0
0.06040770131221507, 1.198128
0.12310023521422409, 2.396256
0.19134369722451083, 3.5943840000000002
0.2675288851605728, 4.792512
0.3568446118151769, 5.99064
0.46651741286041215, 7.1887680000000005
0.6068004222470336, 8.386896
0.7950809231260791, 9.585024
1.0791412933031097, 10.783152
1.5599453763570637, 11.98128
23.399180645355955, 23.96256
*Connector Behavior, name=ConnSect-14
*Connector Elasticity, nonlinear, component=1
0.0, 0.0
0.06262892384256702, 1.3567259999999999
0.12770384273608215, 2.7134519999999998
0.19808434444712475, 4.070178
0.2768310878309421, 5.4269039999999995
0.3687510616146028, 6.78363
0.4818067463929765, 8.140356
0.6268566357903183, 9.497081999999999
0.8241215982707217, 10.853807999999999
1.127540526795201, 12.210533999999999
1.6563654935453087, 13.56726
24.84548240317963, 27.13452
*Connector Behavior, name=ConnSect-15
*Connector Elasticity, nonlinear, component=1
0.0, 0.0
0.07691867722314782, 1.1933099999999999
0.15698789866291918, 2.3866199999999997
0.24361284886253998, 3.57993
0.33997930586338043, 4.7732399999999995
0.45266893721418455, 5.96655
0.59070505812997, 7.15986
0.7675088272662833, 8.35317
1.0053275764221326, 9.546479999999999
1.361788745271042, 10.73979
1.9567133858799934, 11.9331
29.3507007881999, 23.8662
*Connector Behavior, name=ConnSect-16
*Connector Elasticity, nonlinear, component=1
0.0, 0.0
0.34141856303904206, 0.7154142
0.7001571066211909, 1.4308284
1.0846307850442827, 2.1462426
1.5273263852577657, 2.8616568
2.0516391668934375, 3.577071
2.6987603632733226, 4.2924852
3.5195800592191517, 5.0078994
4.601755063049495, 5.7233136
6.1202229699119925, 6.438727800000001
8.451989269815385, 7.154142
126.77983904723078, 14.308284
*Connector Behavior, name=ConnSect-17
*Connector Elasticity, nonlinear, component=1
0.0, 0.0
0.36336059565655887, 0.7468402000000001
0.7453589205397293, 1.4936804000000001
1.1544163862708956, 2.2405206
1.6241538105532527, 2.9873608000000003
2.179873554268852, 3.734201
2.865107380785048, 4.4810412
3.734497877303511, 5.2278814
4.882138746324927, 5.9747216000000005
6.493086693808436, 6.721561800000001
8.967305184341967, 7.468402
134.5095777651295, 14.936804
*Connector Behavior, name=ConnSect-18
*Connector Elasticity, nonlinear, component=1
0.0, 0.0
0.35423090594122186, 0.8756929
0.7265342719620094, 1.7513858
1.124215341405943, 2.6270786999999998
1.5770817117299885, 3.5027716
2.1104232291691005, 4.3784645
2.766529214568436, 5.2541573999999995
3.6020574043504894, 6.129850299999999
4.713789094239473, 7.0055432
6.296734209172428, 7.8812361
8.766435785219073, 8.756929
131.4965367782861, 17.513858
*Connector Behavior, name=ConnSect-19
*Connector Elasticity, nonlinear, component=1
0.0, 0.0
0.0846724560688017, 1.137947
0.17288124581682496, 2.275894
0.26824369342648424, 3.413841
0.3741715045180172, 4.551788
0.498065710416995, 5.689735
0.6496464629890397, 6.827682
0.8437582437181845, 7.965629
1.1042223195545375, 9.103576
1.4918262604624033, 10.241522999999999
2.1303255925886333, 11.37947
31.9548838888295, 22.75894
*Connector Behavior, name=ConnSect-20
*Connector Elasticity, nonlinear, component=1
0.0, 0.0
0.0036891671584271535, 1.335687
0.006723075216541474, 2.671374
0.011567095725695253, 4.007061
0.018309358438273193, 5.342748
0.026920304208033485, 6.678435
0.03882979399350006, 8.014122
0.05354643235477852, 9.349809
0.07341547188843833, 10.685496
0.11607387932599522, 12.021183
0.2296747152286116, 13.35687
3.445120728429174, 26.71374
*Connector Behavior, name=ConnSect-21
*Connector Elasticity, nonlinear, component=1
0.0, 0.0
0.026770105705509195, 1.245519
0.054071861086413264, 2.491038
0.0847876799525693, 3.736557
0.11982173418800812, 4.982076
0.16139061699504964, 6.227595
0.2131765904778149, 7.473114
0.27902253350475803, 8.718633
0.36692657886305824, 9.964152
0.5057553789811209, 11.209671
0.761771880206652, 12.45519
11.42657820309978, 24.91038
*Connector Behavior, name=ConnSect-22
*Connector Elasticity, nonlinear, component=1
0.0, 0.0
0.16873926142579876, 1.0399889999999998
0.34521879570093006, 2.0799779999999997
0.5341165160643868, 3.119967
0.7438918692059815, 4.159955999999999
0.9885204053716734, 5.199945
1.2872130901087075, 6.239934
1.6707096074242145, 7.279922999999999
2.187138161389157, 8.319911999999999
2.9498027288354933, 9.359900999999999
4.181464319117367, 10.39989
62.72196478676051, 20.79978
*Connector Behavior, name=ConnSect-23
*Connector Elasticity, nonlinear, component=1
0.0, 0.0
0.20394658349687234, 1.039334
0.41744016925804317, 2.078668
0.6454973481595516, 3.1180019999999997
0.8990941569209099, 4.157336
1.194746801047586, 5.19667
1.55581597937271, 6.236003999999999
2.0195069373585284, 7.2753380000000005
2.6445440016686916, 8.314672
3.5663583548739552, 9.354006
5.052112392149866, 10.39334
75.78168588224798, 20.78668
*Connector Behavior, name=ConnSect-24
*Connector Elasticity, nonlinear, component=1
0.0, 0.0
0.2652619150467217, 1.004024
0.5434470949694514, 2.008048
0.8402582170674577, 3.0120720000000003
1.1735661973943934, 4.016096
1.5635250019840896, 5.02012
2.041273401118815, 6.024144000000001
2.6531913317739964, 7.028168000000001
3.4753140062093735, 8.032192
4.673732910305262, 9.036216
6.586711970157921, 10.04024
98.80067955236882, 20.08048
*Connector Behavior, name=ConnSect-25
*Connector Elasticity, nonlinear, component=1
0.0, 0.0
0.3419824133743532, 0.9491628999999999
0.7013389404164627, 1.8983257999999998
1.0847343219211325, 2.8474887
1.5188258839771152, 3.7966515999999997
2.0286280778236687, 4.7458145
2.6546779554337263, 5.6949774
3.4535754821263254, 6.644140299999999
4.521082155406475, 7.593303199999999
6.052925018593669, 8.5424661
8.461762918159366, 9.491629
126.92644377239048, 18.983258
*Connector Behavior, name=ConnSect-26
*Connector Elasticity, nonlinear, component=1
0.0, 0.0
0.15258616258506663, 1.0426069999999998
0.31209056032821536, 2.0852139999999997
0.48303882067557424, 3.127821
0.6729300366714597, 4.170427999999999
0.8944927685661241, 5.213035
1.1650945816654712, 6.255642
1.5123945195227861, 7.298249
1.9796585547737777, 8.340855999999999
2.6698518195189536, 9.383462999999999
3.7856519338674843, 10.42607
56.784779008012265, 20.85214
*Connector Behavior, name=ConnSect-27
*Connector Elasticity, nonlinear, component=1
0.0, 0.0
0.3328204547869973, 1.0601889999999998
0.6825436867075041, 2.1203779999999997
1.0550066508585587, 3.180567
1.4727437519468367, 4.240755999999999
1.961216185009107, 5.300945
2.559217973612249, 6.361134
3.324412682559341, 7.421322999999999
4.352882388047874, 8.481511999999999
5.843250546604395, 9.541701
8.208567160181701, 10.60189
123.12850740272552, 21.20378
*Connector Behavior, name=ConnSect-28
*Connector Elasticity, nonlinear, component=1
0.0, 0.0
0.26336756491218694, 1.0739610000000002
0.5396137203206308, 2.1479220000000003
0.83408500358928, 3.2218830000000005
1.162787084467709, 4.295844000000001
1.5463757154066116, 5.369805
2.015334612224251, 6.443766000000001
2.6167361647821963, 7.517727000000001
3.4270601463504136, 8.591688000000001
4.613418423105031, 9.665649
6.514129345305264, 10.73961
97.71194017957896, 21.47922
*Connector Behavior, name=ConnSect-29
*Connector Elasticity, nonlinear, component=1
0.0, 0.0
0.2277723979204893, 1.020767
0.4663326035370119, 2.041534
0.7210569310700521, 3.062301
1.005991580314003, 4.083068
1.3388451770879328, 5.103835
1.7461617244407535, 6.124602
2.268676325911656, 7.145369
2.971867797896266, 8.166136
4.004330839961767, 9.186903000000001
5.663023330271244, 10.20767
84.94534995406866, 20.41534
*Connector Behavior, name=ConnSect-30
*Connector Elasticity, nonlinear, component=1
0.0, 0.0
0.2857737854355946, 0.9316831999999999
0.5856121788383462, 1.8633663999999999
0.9057872375706211, 2.7950496
1.2679940846282989, 3.7267327999999997
1.6931504069361836, 4.658416
2.2152600286062807, 5.5900992
2.882507396861911, 6.521782399999999
3.775219083763659, 7.4534655999999995
5.065340083092451, 8.3851488
7.108424906618893, 9.316832
106.6263735992834, 18.633664
*Connector Behavior, name=ConnSect-31
*Connector Elasticity, nonlinear, component=1
0.0, 0.0
0.32114461646415293, 0.8360606
0.658373610349372, 1.6721212
1.0189222666667774, 2.5081818
1.4307051606010646, 3.3442424
1.9161796080879867, 4.180303
2.5140901561826468, 5.0163636
3.2756332075223327, 5.8524242
4.288175841793418, 6.6884848
5.73224329855293, 7.524545400000001
7.9901330173015594, 8.360606
119.85199525952339, 16.721212
*Connector Behavior, name=ConnSect-32
*Connector Elasticity, nonlinear, component=1
0.0, 0.0
0.23631017029401846, 1.007473
0.4838656968786381, 2.014946
0.7481846114387736, 3.022419
1.0444963118061423, 4.029892
1.3909269182477146, 5.037365
1.8151644326280802, 6.044838
2.35910527408123, 7.052311
3.090527607128024, 8.059784
4.162165569141507, 9.067257000000001
5.880789249204099, 10.07473
88.21183873806149, 20.14946
*Connector Behavior, name=ConnSect-33
*Connector Elasticity, nonlinear, component=1
0.0, 0.0
0.07491386440960923, 1.0708410000000002
0.15280711522791535, 2.1416820000000003
0.2374234281887766, 3.212523
0.33163400075864047, 4.283364000000001
0.44215710659045726, 5.354205
0.5775136378360912, 6.425046
0.7505762914661318, 7.495887000000001
0.9814149962039664, 8.566728000000001
1.3235221558716148, 9.637569000000001
1.8840243865270168, 10.70841
28.26036579790525, 21.41682
*Connector Behavior, name=ConnSect-34
*Connector Elasticity, nonlinear, component=1
0.0, 0.0
0.021921953248238424, 1.384731
0.0441599877376575, 2.769462
0.06918784038134618, 4.154193
0.09816320925892796, 5.538924
0.1324013192061102, 6.923654999999999
0.17548451069160365, 8.308386
0.23047996364766732, 9.693117
0.30584535124944523, 11.077848
0.43173837184440345, 12.462579
0.6825125456089154, 13.847309999999998
10.23768818413373, 27.69462
*Connector Behavior, name=ConnSect-35
*Connector Elasticity, nonlinear, component=1
0.0, 0.0
-0.0022675229160995514, 1.071332
-0.005577313118010352, 2.142664
-0.006803751375628053, 3.2139960000000003
-0.007085770334924746, 4.285328
-0.006004860324537731, 5.35666
-0.003604827156777901, 6.427992000000001
-0.0018189466288731637, 7.499324
-0.0036983280438107613, 8.570656
-0.0032320372156391386, 9.641988
0.014610207017540233, 10.71332
0.2191531052631035, 21.42664
*Connector Behavior, name=ConnSect-36
*Connector Elasticity, nonlinear, component=1
0.0, 0.0
0.14504299542750232, 1.1049
0.2966740430565551, 2.2098
0.4591535252984613, 3.3146999999999998
0.6394964293576777, 4.4196
0.8497870294377208, 5.5245
1.1066075239796191, 6.6293999999999995
1.4362767979037017, 7.734299999999999
1.8805140280164778, 8.8392
2.5383898173458874, 9.9441
3.607199469115585, 11.049
54.107992036733776, 22.098
*Connector Behavior, name=ConnSect-37
*Connector Elasticity, nonlinear, component=1
0.0, 0.0
0.34994045563507825, 0.9717984
0.7177357474574819, 1.9435968
1.1099707626271993, 2.9153952
1.5534186968579888, 3.8871936
2.0738715829793364, 4.858992
2.7126711211167276, 5.8307904
3.5280402516946197, 6.8025888
4.61842748336494, 7.7743872
6.184126250445843, 8.7461856
8.64759786054492, 9.717984
129.7139679081738, 19.435968
*Connector Behavior, name=ConnSect-38
*Connector Elasticity, nonlinear, component=1
0.0, 0.0
0.3682581154862419, 0.8721054
0.7554340118076652, 1.7442108
1.1690225801430643, 2.6163162
1.6401139146182686, 3.4884216
2.1950869995635003, 4.360527
2.877771621569991, 5.2326324
3.7466277717612684, 6.1047378000000005
4.901657230220735, 6.9768432
6.541975890286267, 7.8489486
9.09361056983471, 8.721054
136.40415854752064, 17.442108
*Connector Behavior, name=ConnSect-39
*Connector Elasticity, nonlinear, component=1
0.0, 0.0
0.37365378375397995, 0.8847537000000001
0.7665486918995157, 1.7695074000000002
1.1861425446113572, 2.6542611000000003
1.6636888904031366, 3.5390148000000003
2.226062206318602, 4.4237685
2.917658712249249, 5.3085222000000005
3.797985555138439, 6.193275900000001
4.968812572769821, 7.078029600000001
6.632235599681735, 7.962783300000001
9.220797219313681, 8.847537
138.31195828970522, 17.695074
*Connector Behavior, name=ConnSect-40
*Connector Elasticity, nonlinear, component=1
0.0, 0.0
0.07713421837252099, 1.2071
0.15743418771307915, 2.4142
0.24426997697446495, 3.6213
0.3408863631193526, 4.8284
0.4538343637250364, 6.0355
0.5922031778027304, 7.2426
0.7694707892369479, 8.4497
1.0081385698867962, 9.6568
1.3663813297171146, 10.8639
1.9656374934129417, 12.071
29.484562401194125, 24.142
*Connector Behavior, name=ConnSect-41
*Connector Elasticity, nonlinear, component=1
0.0, 0.0
0.06739817763445899, 1.244569
0.137461356644053, 2.489138
0.21338501028367318, 3.7337070000000003
0.29806786187691614, 4.978276
0.397115400119219, 6.222845
0.5186650014366023, 7.467414000000001
0.6743658013874665, 8.711983
0.8843264367897063, 9.956552
1.2019684800179675, 11.201121
1.7410343571100384, 12.44569
26.115515356650576, 24.89138
*Connector Behavior, name=ConnSect-42
*Connector Elasticity, nonlinear, component=1
0.0, 0.0
0.08443934348179027, 1.121905
0.17238899090443738, 2.24381
0.2675152791198343, 3.3657150000000002
0.3732253026100807, 4.48762
0.49691854655975476, 5.609525
0.648268687655218, 6.7314300000000005
0.8420494850724936, 7.8533349999999995
1.1018218356184661, 8.97524
1.4879788795951754, 10.097145
2.1229324920568615, 11.21905
31.843987380852923, 22.4381
*Connector Behavior, name=ConnSect-43
*Connector Elasticity, nonlinear, component=1
0.0, 0.0
0.08922320375859272, 1.034465
0.1821239675336983, 2.06893
0.2826893251040019, 3.103395
0.3946610013372265, 4.13786
0.5258963574306108, 5.172325
0.6865075556561351, 6.20679
0.8920409891288728, 7.241255
1.1664700286928564, 8.27572
1.5719261136837304, 9.310185
2.2310970234684646, 10.34465
33.46645535202697, 20.6893
*Connector Behavior, name=ConnSect-44
*Connector Elasticity, nonlinear, component=1
0.0, 0.0
0.08509997314831708, 1.110791
0.1737342608976178, 2.221582
0.26961020921589807, 3.3323729999999996
0.376180796592962, 4.443164
0.5009077722206712, 5.553955
0.653526367386803, 6.664745999999999
0.8489188621751964, 7.775537
1.1107142199762166, 8.886328
1.4995601668488234, 9.997119000000001
2.1379707322921604, 11.10791
32.069560984382406, 22.21582
*Connector Behavior, name=ConnSect-45
*Connector Elasticity, nonlinear, component=1
0.0, 0.0
0.11374043424439151, 1.1361890000000001
0.23249902369570918, 2.2723780000000002
0.36015768273500726, 3.408567
0.5018549563828856, 4.5447560000000005
0.6672323797829449, 5.680945
0.8693314885022119, 6.817134
1.1285446089459583, 7.953323
1.4774786541238427, 9.089512000000001
1.9955699099227786, 10.225701
2.842909889295697, 11.36189
42.64364833943546, 22.72378
*Connector Behavior, name=ConnSect-46
*Connector Elasticity, nonlinear, component=1
0.0, 0.0
-0.00022618932504769873, 1.6307649999999998
-0.0015590200064252713, 3.2615299999999996
-0.001512602239017724, 4.892295
0.00037099468386259105, 6.523059999999999
0.0030032117592782015, 8.153825
0.007831450261619466, 9.78459
0.013738651887251763, 11.415355
0.022995704966888297, 13.046119999999998
0.05931674877501791, 14.676884999999999
0.18416854800307192, 16.30765
2.762528220046079, 32.6153
*Connector Behavior, name=ConnSect-47
*Connector Elasticity, nonlinear, component=1
0.0, 0.0
0.07842420018278062, 1.114802
0.16004554709070362, 2.229604
0.24849925466696732, 3.344406
0.3468394424999133, 4.459208
0.46200977521948516, 5.57401
0.6029869837220758, 6.688812
0.7833852578187361, 7.8036140000000005
1.0248585749650374, 8.918416
1.3838271843269467, 10.033218000000002
1.974695042008534, 11.14802
29.62042563012801, 22.29604
*Connector Behavior, name=ConnSect-48
*Connector Elasticity, nonlinear, component=1
0.0, 0.0
0.10970469702442642, 1.066723
0.22416050342144445, 2.133446
0.34743439755402505, 3.200169
0.4844653813051991, 4.266892
0.6446551560657099, 5.333615
0.8404979598708451, 6.400338
1.0915030725300312, 7.467060999999999
1.4282313350122422, 8.533784
1.9264656293671578, 9.600507
2.736689057201147, 10.66723
41.050335858017206, 21.33446
*Connector Behavior, name=ConnSect-49
*Connector Elasticity, nonlinear, component=1
0.0, 0.0
0.25466515580774285, 1.073957
0.5217036596150137, 2.147914
0.8064114808803424, 3.221871
1.1240257299505174, 4.295828
1.4945831208024174, 5.369785
1.9475366570986807, 6.443742
2.5285957963205874, 7.517699
3.311744367238134, 8.591656
4.4600511319004, 9.665613
6.3023349503055215, 10.73957
94.53502425458282, 21.47914
*Connector Behavior, name=ConnSect-50
*Connector Elasticity, nonlinear, component=1
0.0, 0.0
0.24309541913680732, 1.076582
0.49789476179284975, 2.153164
0.7696142711210996, 3.229746
1.0724049934651703, 4.306328
1.4255044516175985, 5.38291
1.8569792155176401, 6.459492
2.410764864180237, 7.536073999999999
3.1575627508573234, 8.612656
4.255137464497238, 9.689238
6.01976178586483, 10.76582
90.29642678797245, 21.53164
*Connector Behavior, name=ConnSect-51
*Connector Elasticity, nonlinear, component=1
0.0, 0.0
0.07565661690023262, 1.187453
0.15439589333254844, 2.374906
0.2396289346506819, 3.562359
0.33445867302361876, 4.749812
0.44538282963912934, 5.937265
0.5812678864458576, 7.124718
0.7552857277914882, 8.312171000000001
0.9892272646538913, 9.499624
1.339778391411528, 10.687076999999999
1.924702519318089, 11.87453
28.870537789771333, 23.74906
*Connector Behavior, name=ConnSect-52
*Connector Elasticity, nonlinear, component=1
0.0, 0.0
0.07391739018203225, 1.252577
0.15084435290191323, 2.505154
0.23400498321279883, 3.7577309999999997
0.3266465864726342, 5.010308
0.4348894799477421, 6.262885
0.5676111686625518, 7.515461999999999
0.7377225847449154, 8.768039
0.9673872409621254, 10.020616
1.3142147508915514, 11.273193
1.9003733177669346, 12.52577
28.50559976650402, 25.05154
*Connector Behavior, name=ConnSect-53
*Connector Elasticity, nonlinear, component=1
0.0, 0.0
0.37704685382777825, 0.9610563000000001
0.7735331018920988, 1.9221126000000002
1.1963614815613255, 2.8831689000000003
1.67525649885647, 3.8442252000000003
2.2377975983545184, 4.8052815
2.9285915661603212, 5.7663378000000005
3.809509798884392, 6.727394100000001
4.9859663704410195, 7.688450400000001
6.668585119768977, 8.6495067
9.305729763582349, 9.610563
139.58594645373523, 19.221126
*Connector Behavior, name=ConnSect-54
*Connector Elasticity, nonlinear, component=1
0.0, 0.0
0.32093234040075913, 0.9754129
0.6580190529348329, 1.9508258
1.0175578790949658, 2.9262387000000003
1.4233929687179625, 3.9016516
1.8993261619471014, 4.8770645
2.4832520284689963, 5.852477400000001
3.2293202821165323, 6.8278903
4.228329635225236, 7.8033032
5.669050733558834, 8.7787161
7.945550023578107, 9.754129
119.18325035367161, 19.508258
*Connector Behavior, name=ConnSect-55
*Connector Elasticity, nonlinear, component=1
0.0, 0.0
0.025980900772992754, 1.4185
0.05250050890026614, 2.837
0.0819734123069793, 4.2555
0.11587634617171716, 5.674
0.15574192730127834, 7.092499999999999
0.2057029450952541, 8.511
0.26964426069753245, 9.9295
0.3576968811103143, 11.348
0.5034996866015717, 12.7665
0.7894993905210868, 14.184999999999999
11.842490857816301, 28.37
*Connector Behavior, name=ConnSect-56
*Connector Elasticity, nonlinear, component=1
0.0, 0.0
0.1126596635003807, 1.085485
0.2302377652085852, 2.17097
0.3567678140825592, 3.2564550000000003
0.49735361244529486, 4.34194
0.6616050814045593, 5.427425
0.8623775647720322, 6.512910000000001
1.1197750427527353, 7.598395000000001
1.4654759434051812, 8.68388
1.9774484098888934, 9.769365
2.811108424793929, 10.85485
42.16662637190893, 21.7097
*Connector Behavior, name=ConnSect-57
*Connector Elasticity, nonlinear, component=1
0.0, 0.0
0.1405088187311776, 1.075404
0.28734837542288005, 2.150808
0.44483243982540444, 3.2262119999999994
0.6197239417815581, 4.301616
0.8237880683736876, 5.37702
1.073051753337495, 6.452423999999999
1.3929209671914577, 7.5278279999999995
1.8233915034215897, 8.603232
2.460169780533761, 9.678636000000001
3.4929352113977075, 10.75404
52.39402817096561, 21.50808
*Connector Behavior, name=ConnSect-58
*Connector Elasticity, nonlinear, component=1
0.0, 0.0
0.10526132427912671, 1.077344
0.2150563886971213, 2.154688
0.33337862987536937, 3.2320320000000002
0.46489734813803807, 4.309376
0.618660997133702, 5.38672
0.8066689770203084, 6.4640640000000005
1.047599216690287, 7.541408000000001
1.3707924517802894, 8.618752
1.849338732426986, 9.696096
2.6288445224054158, 10.77344
39.43266783608124, 21.54688
*Connector Behavior, name=ConnSect-59
*Connector Elasticity, nonlinear, component=1
0.0, 0.0
0.10988137546519283, 1.0794549999999998
0.2245340874651447, 2.1589099999999997
0.3479860970401205, 3.2383649999999995
0.4851796984439716, 4.317819999999999
0.6455170660046861, 5.397275
0.8415284537477419, 6.476729999999999
1.0927773837465793, 7.556184999999999
1.4300293696578592, 8.635639999999999
1.929374848259613, 9.715095
2.742352371569723, 10.79455
41.13528557354584, 21.5891
*Connector Behavior, name=ConnSect-60
*Connector Elasticity, nonlinear, component=1
0.0, 0.0
0.37640274967998266, 0.9234156
0.772207640693523, 1.8468312
1.194600699818693, 2.7702468000000002
1.6741603030823171, 3.6936624
2.238190354546532, 4.617078
2.9313151026144624, 5.5404936000000005
3.814386436715722, 6.463909200000001
4.991294117644429, 7.3873248
6.668866262771189, 8.3107404
9.288672008551657, 9.234156
139.33008012827486, 18.468312
*Connector Behavior, name=ConnSect-61
*Connector Elasticity, nonlinear, component=1
0.0, 0.0
0.37434241676237434, 0.9425874999999999
0.767960591474548, 1.8851749999999998
1.1878664372488856, 2.8277625
1.6640109242871404, 3.7703499999999996
2.223640476586297, 4.7129375
2.9111182084307075, 5.655525
3.7875009002164006, 6.598112499999999
4.956910270266235, 7.540699999999999
6.627431721426547, 8.4832875
9.242396336048841, 9.425875
138.63594504073262, 18.85175
*Connector Behavior, name=ConnSect-62
*Connector Elasticity, nonlinear, component=1
0.0, 0.0
0.11896431715285871, 1.075115
0.24315970222232863, 2.15023
0.3767087764572352, 3.225345
0.525095674674958, 4.30046
0.6984264473430812, 5.375575
0.9102646436076611, 6.45069
1.181901097879745, 7.525805000000001
1.5468016499653459, 8.60092
2.0868262799922377, 9.676035
2.9646189068444073, 10.75115
44.46928360266611, 21.5023
*Connector Behavior, name=ConnSect-63
*Connector Elasticity, nonlinear, component=1
0.0, 0.0
0.01398154608978075, 1.480171
0.027888963813893497, 2.960342
0.04388038632896496, 4.440513
0.0630606473350781, 5.920684
0.08574191269872244, 7.400855
0.11493165402498562, 8.881026
0.15227798030537087, 10.361197
0.20517607481451705, 11.841368
0.30187491574906744, 13.321539000000001
0.516870422870852, 14.80171
7.753056343062781, 29.60342
*Connector Behavior, name=ConnSect-64
*Connector Elasticity, nonlinear, component=1
0.0, 0.0
0.37802652514074, 0.9631795999999999
0.7755511614959687, 1.9263591999999998
1.199471444124356, 2.8895387999999995
1.679545093793422, 3.8527183999999997
2.243441413156688, 4.815898
2.9358695610426366, 5.779077599999999
3.8188864709809422, 6.7422572
4.998221411369741, 7.705436799999999
6.685020052827895, 8.6686164
9.328796877525747, 9.631796
139.9319531628862, 19.263592
*Connector Behavior, name=ConnSect-65
*Connector Elasticity, nonlinear, component=1
0.0, 0.0
0.24600049073342234, 1.0371460000000001
0.5038367453380488, 2.0742920000000002
0.778936519054696, 3.1114380000000006
1.0866647789953277, 4.1485840000000005
1.446106907678768, 5.18573
1.885916426545009, 6.222876000000001
2.4499261053279042, 7.260022000000001
3.2091132015921175, 8.297168000000001
4.321520391386002, 9.334314000000001
6.105394568294287, 10.37146
91.5809185244143, 20.74292
*Connector Behavior, name=ConnSect-66
*Connector Elasticity, nonlinear, component=1
0.0, 0.0
0.27558442525332794, 1.0446170000000001
0.5647294528898783, 2.0892340000000003
0.8729970431886613, 3.133851
1.218184843310155, 4.1784680000000005
1.621550036361441, 5.223085
2.115204988513142, 6.267702
2.7477185358293355, 7.3123190000000005
3.5986618604511023, 8.356936000000001
4.840024339500815, 9.401553
6.822568830102682, 10.44617
102.33853245154023, 20.89234
*Connector Behavior, name=ConnSect-67
*Connector Elasticity, nonlinear, component=1
0.0, 0.0
0.024064240733423503, 1.255109
0.04852070560446009, 2.510218
0.07620550150022609, 3.765327
0.10792379725899082, 5.020436
0.1456322115700459, 6.275545
0.1927461380546447, 7.530654
0.2525990203139372, 8.785763
0.33251275453949347, 10.040872
0.4600079410010949, 11.295981000000001
0.6991279224166647, 12.55109
10.48691883624997, 25.10218
*Connector Behavior, name=ConnSect-68
*Connector Elasticity, nonlinear, component=1
0.0, 0.0
0.31638865038985386, 0.6220854
0.6487189966719598, 1.2441708
1.0056886821985245, 1.8662562
1.419359032297507, 2.4883416
1.91089857253246, 3.110427
2.518730761948973, 3.7325124
3.287950821686536, 4.3545978
4.296702682040632, 4.9766832
5.700841429643333, 5.5987686000000005
7.838833844289184, 6.220854
117.58250766433775, 12.441708
*Connector Behavior, name=ConnSect-69
*Connector Elasticity, nonlinear, component=1
0.0, 0.0
0.3361711060279049, 0.6441091
0.6893978570587933, 1.2882182
1.0685616143746302, 1.9323273
1.5071171219460666, 2.5764364
2.0278050214983523, 3.2205455
2.6712461840361357, 3.8646546
3.485769557300955, 4.5087637
4.554898478090763, 5.1528728
6.043758476153016, 5.7969819000000005
8.310687262564898, 6.441091
124.66030893847346, 12.882182
*Connector Behavior, name=ConnSect-70
*Connector Elasticity, nonlinear, component=1
0.0, 0.0
0.019551910099835368, 1.211974
0.039246933738468215, 2.423948
0.06200195912242634, 3.635922
0.08824782526062336, 4.847896
0.11971910680586006, 6.05987
0.15920237274258398, 7.271844
0.2091148417093791, 8.483818
0.2748427868937142, 9.695792
0.37986676034051925, 10.907766
0.5786788096884266, 12.11974
8.680182145326398, 24.23948
*Connector Behavior, name=ConnSect-71
*Connector Elasticity, nonlinear, component=1
0.0, 0.0
0.35374745493754745, 0.8555388
0.7255407399497926, 1.7110776
1.122837420552969, 2.5666164
1.5758788504172117, 3.4221552
2.109804918291047, 4.277694
2.766890684142709, 5.1332328
3.6032209754921496, 5.988771600000001
4.71469946205616, 6.8443104
6.294170161709189, 7.6998492
8.753224974498153, 8.555388
131.2983746174723, 17.110776
*Connector Behavior, name=ConnSect-72
*Connector Elasticity, nonlinear, component=1
0.0, 0.0
0.051529968914110214, 1.2452489999999998
0.10489175110706128, 2.4904979999999997
0.16315785615006462, 3.735747
0.2284489164594561, 4.980995999999999
0.3050457780773286, 6.226245
0.3993467180407606, 7.471494
0.5199522638577037, 8.716743
0.682245081407018, 9.961991999999999
0.9300666715716943, 11.207241
1.3586448039859533, 12.45249
20.3796720597893, 24.90498
*Connector Behavior, name=ConnSect-73
*Connector Elasticity, nonlinear, component=1
0.0, 0.0
0.0657626151223667, 1.1663029999999999
0.13408234735834412, 2.3326059999999997
0.20835128452745266, 3.498909
0.2911108822445385, 4.6652119999999995
0.38811009289929643, 5.831515
0.5070639963378198, 6.997818
0.659219513181597, 8.164121
0.863125897012651, 9.330423999999999
1.1688395898090675, 10.496726999999998
1.6804476035758853, 11.66303
25.20671405363828, 23.32606
*Connector Behavior, name=ConnSect-74
*Connector Elasticity, nonlinear, component=1
0.0, 0.0
0.2486944867996499, 1.025346
0.5093701474834234, 2.050692
0.7875285518821329, 3.076038
1.0990590817527846, 4.101384
1.4631316298618913, 5.12673
1.9087910186499357, 6.152076
2.480125112924725, 7.177422
3.2487176940776408, 8.202768
4.373542033135891, 9.228114000000001
6.175426533445716, 10.25346
92.63139800168574, 20.50692
*Connector Behavior, name=ConnSect-75
*Connector Elasticity, nonlinear, component=1
0.0, 0.0
0.37258883821778, 0.7912909
0.7643659046152607, 1.5825818
1.1835100303869694, 2.3738727
1.6633840277791023, 3.1651636
2.230264217359945, 3.9564545000000004
2.9286067001521587, 4.7477454
3.8154202047735453, 5.5390363
4.988685832358897, 6.3303272
6.6408340353518724, 7.121618100000001
9.187014074996114, 7.912909000000001
137.8052111249417, 15.825818
*Connector Behavior, name=ConnSect-76
*Connector Elasticity, nonlinear, component=1
0.0, 0.0
0.004519299352523376, 1.112308
0.00836431297557283, 2.224616
0.014603025420001359, 3.336924
0.022574888589588227, 4.449232
0.03311818318252335, 5.56154
0.04706035724666435, 6.673848
0.06381833827617811, 7.786156
0.0829276268632384, 8.898464
0.11574820746318437, 10.010772
0.1893126500362996, 11.12308
2.839689750544494, 22.24616
*Connector Behavior, name=ConnSect-77
*Connector Elasticity, nonlinear, component=1
0.0, 0.0
0.0733562592358794, 1.256397
0.14969373296480626, 2.512794
0.23222193703986704, 3.769191
0.32417414331575856, 5.025588
0.4316102422308177, 6.281985
0.5633581167785451, 7.538382
0.7322249439312145, 8.794779
0.9602592763258144, 10.051176
1.3048472465015948, 11.307573
1.8878772971220315, 12.56397
28.31815945683047, 25.12794
*Connector Behavior, name=ConnSect-78
*Connector Elasticity, nonlinear, component=1
0.0, 0.0
0.36907600588165224, 0.8005066
0.7571275637019426, 1.6010132
1.1722207273123786, 2.4015198
1.6472012794110924, 3.2020264
2.2081185306888074, 4.002533
2.899027313105762, 4.8030396
3.7766946479678154, 5.603546199999999
4.9386086175218225, 6.4040528
6.577002932317555, 7.204559399999999
9.10587259568274, 8.005066
136.5880889352411, 16.010132
*Connector Behavior, name=ConnSect-79
*Connector Elasticity, nonlinear, component=1
0.0, 0.0
0.08131705726555083, 1.0857430000000001
0.16595331544522196, 2.1714860000000002
0.2576622136984952, 3.257229
0.3596865280997008, 4.3429720000000005
0.4792221443494782, 5.428715
0.6255410698940977, 6.514458
0.8127622277243063, 7.600201000000001
1.0630722681526095, 8.685944000000001
1.434305595466867, 9.771687
2.0425929687917233, 10.85743
30.63889453187585, 21.71486
*Connector Behavior, name=ConnSect-80
*Connector Elasticity, nonlinear, component=1
0.0, 0.0
0.06852230399090331, 1.237854
0.139766725624213, 2.475708
0.21695534087484702, 3.7135619999999996
0.3030183506780304, 4.951416
0.4036788232042454, 6.18927
0.5271769259707071, 7.427123999999999
0.6853699596831575, 8.664978
0.8986101602204144, 9.902832
1.2207956751808524, 11.140685999999999
1.7663213657215238, 12.37854
26.494820485822856, 24.75708
*Connector Behavior, name=ConnSect-81
*Connector Elasticity, nonlinear, component=1
0.0, 0.0
0.35814162401948124, 0.8771737
0.7345911581069231, 1.7543474
1.1366869875928387, 2.6315210999999996
1.5945362974889576, 3.5086948
2.1337458747439086, 4.3858685
2.797030028887093, 5.263042199999999
3.6416109651327133, 6.140215899999999
4.765262710861862, 7.0173896
6.364386645145714, 7.8945633
8.85788758751005, 8.771737
132.86831381265074, 17.543474
*Connector Behavior, name=ConnSect-82
*Connector Elasticity, nonlinear, component=1
0.0, 0.0
0.009104144282900961, 1.4508670000000001
0.017869768953460152, 2.9017340000000003
0.028496065169747453, 4.352601
0.04174427431280492, 5.8034680000000005
0.05762491582572693, 7.254335
0.07851941518310923, 8.705202
0.10510590982448775, 10.156069
0.14292240848590154, 11.606936000000001
0.2163779026886914, 13.057803000000002
0.3913586988346651, 14.50867
5.870380482519977, 29.01734
*Connector Behavior, name=ConnSect-83
*Connector Elasticity, nonlinear, component=1
0.0, 0.0
0.026410200462123612, 1.3919489999999999
0.05337422408047132, 2.7838979999999998
0.0833808007882908, 4.175847
0.11783390618802514, 5.5677959999999995
0.15839699699427, 6.959745
0.20916724679409526, 8.351694
0.27408230380387977, 9.743643
0.36303816159488633, 11.135591999999999
0.509127348777838, 12.527541
0.7926734542706981, 13.91949
11.890101814060472, 27.83898
*Connector Behavior, name=ConnSect-84
*Connector Elasticity, nonlinear, component=1
0.0, 0.0
0.3401077992748469, 0.7505852
0.6974523421376944, 1.5011704
1.0801578901009634, 2.2517556
1.5197711763903499, 3.0023408
2.0397773187141865, 3.752926
2.681157784536481, 4.5035112
3.4955123555846512, 5.2540964
4.571513272821903, 6.0046816
6.087191286496818, 6.755266799999999
8.424741099588573, 7.505852
126.3711164938286, 15.011704
*Connector Behavior, name=ConnSect-85
*Connector Elasticity, nonlinear, component=1
0.0, 0.0
0.036617341265809955, 1.269128
0.07429001925629564, 2.538256
0.11591284419409931, 3.8073840000000003
0.16295765817631036, 5.076512
0.2183770811825525, 6.34564
0.2870072603400331, 7.614768000000001
0.3746097718249075, 8.883896
0.49244456022279337, 10.153024
0.6760533869965002, 11.422152
1.0055641905637458, 12.69128
15.083462858456187, 25.38256
*Connector Behavior, name=ConnSect-86
*Connector Elasticity, nonlinear, component=1
0.0, 0.0
0.22036816517356783, 1.0599830000000001
0.45115011744201183, 2.1199660000000002
0.6974657298997045, 3.179949
0.9716758358990774, 4.2399320000000005
1.291370572289452, 5.299915
1.68193771969527, 6.359898
2.183497854275629, 7.419881000000001
2.859931846614927, 8.479864000000001
3.8570608012378216, 9.539847
5.4642814211547375, 10.59983
81.96422131732106, 21.19966
*Connector Behavior, name=ConnSect-87
*Connector Elasticity, nonlinear, component=1
0.0, 0.0
0.34436332498444244, 0.9350822000000001
0.7062321674311534, 1.8701644000000002
1.0923869558610022, 2.8052466000000003
1.5301270468626171, 3.7403288000000003
2.0444951951503754, 4.675411
2.676393196452409, 5.6104932000000005
3.482460742816329, 6.5455754000000015
4.558743967209011, 7.480657600000001
6.101096514612436, 8.4157398
8.523332071490586, 9.350822
127.84998107235879, 18.701644
*Connector Behavior, name=ConnSect-88
*Connector Elasticity, nonlinear, component=1
0.0, 0.0
0.09376591151522007, 1.166528
0.19155735571985133, 2.333056
0.2969817251141649, 3.499584
0.4139741577091627, 4.666112
0.5506067100213841, 5.83264
0.7176748476922512, 6.999168
0.9318054071627557, 8.165696
1.2199134653201327, 9.332224
1.6490659618284553, 10.498752
2.356291370233521, 11.66528
35.34437055350281, 23.33056
*Connector Behavior, name=ConnSect-89
*Connector Elasticity, nonlinear, component=1
0.0, 0.0
0.012265693385415943, 1.442307
0.02435637725284323, 2.884614
0.0385184785045567, 4.3269210000000005
0.05563844297284959, 5.769228
0.07602064670209074, 7.211535
0.10236680282105226, 8.653842000000001
0.13595335076388437, 10.096149
0.18314432963961735, 11.538456
0.27000171030522324, 12.980763
0.4652672942029312, 14.42307
6.979009413043968, 28.84614
*Connector Behavior, name=ConnSect-90
*Connector Elasticity, nonlinear, component=1
0.0, 0.0
0.32572665077168494, 0.6308952
0.6679204670945182, 1.2617904
1.035388049785979, 1.8926856
1.4608587662223727, 2.5235808
1.9662524573504925, 3.154476
2.591014781501144, 3.7853712
3.3817157964222133, 4.4162664
4.418916360009462, 5.0471616
5.862570833414793, 5.678056799999999
8.059879182837903, 6.308952
120.89818774256855, 12.617904
*Connector Behavior, name=ConnSect-91
*Connector Elasticity, nonlinear, component=1
0.0, 0.0
0.31561063224216923, 1.010074
0.6470840162364766, 2.020148
1.0004371142713353, 3.0302219999999997
1.3979876530356705, 4.040296
1.863504439825192, 5.05037
2.434047491988167, 6.0604439999999995
3.1637470237910748, 7.070518
4.142843827139586, 8.080592
5.560017889365554, 9.090666
7.807021611370146, 10.10074
117.1053241705522, 20.20148
*Connector Behavior, name=ConnSect-92
*Connector Elasticity, nonlinear, component=1
0.0, 0.0
0.08719858669792302, 1.132015
0.1780571801646147, 2.26403
0.27623449568636715, 3.396045
0.3852957524941303, 4.52806
0.512842379976064, 5.660075
0.6688763096462935, 6.79209
0.8687143417773768, 7.924105
1.1368732521077618, 9.05612
1.5356732183136046, 10.188134999999999
2.1916485275141895, 11.32015
32.87472791271284, 22.6403
*Connector Behavior, name=ConnSect-93
*Connector Elasticity, nonlinear, component=1
0.0, 0.0
0.05906662408960983, 1.1319810000000001
0.12032909580739215, 2.2639620000000003
0.18721993910730816, 3.395943
0.2618300641188398, 4.5279240000000005
0.3494730481179431, 5.659905
0.4570228702505119, 6.791886
0.5944008808000945, 7.9238669999999995
0.7776886923238635, 9.055848000000001
1.0518496128497645, 10.187829
1.5097348659764975, 11.31981
22.646022989647463, 22.63962
*Connector Behavior, name=ConnSect-94
*Connector Elasticity, nonlinear, component=1
0.0, 0.0
0.3023650060640648, 0.5992483
0.6198802293511108, 1.1984966
0.9612146823201329, 1.7977449
1.3574889453593642, 2.3969932
1.8287984130438417, 2.9962415
2.4119399313349277, 3.5954898
3.1494838185608387, 4.1947381
4.1152010089717805, 4.7939864
5.457113729789853, 5.3932347
7.496659527532756, 5.992483
112.44989291299134, 11.984966
*Connector Behavior, name=ConnSect-95
*Connector Elasticity, nonlinear, component=1
0.0, 0.0
0.005524736934603425, 1.548051
0.010414167945782538, 3.096102
0.016927730257521034, 4.644153
0.025795372948778095, 6.192204
0.03651518227343331, 7.740255
0.051183060350012966, 9.288306
0.06981401838856982, 10.836357000000001
0.09698885151010472, 12.384408
0.1576888644194696, 13.932459
0.31854760891292244, 15.48051
4.778214133693837, 30.96102
*Connector Behavior, name=ConnSect-96
*Connector Elasticity, nonlinear, component=1
0.0, 0.0
0.32881373044801876, 0.6408928
0.6742700497852638, 1.2817856
1.0451120033394545, 1.9226784000000001
1.4742437633685768, 2.5635712
1.9837927538901567, 3.204464
2.6136101223528385, 3.8453568000000002
3.4109823172912, 4.4862496
4.457817121874541, 5.1271424
5.916660884395242, 5.768035200000001
8.1404868979007, 6.408928
122.10730346851051, 12.817856
*Connector Behavior, name=ConnSect-97
*Connector Elasticity, nonlinear, component=1
0.0, 0.0
0.30772956961300224, 0.6097534
0.6309125456027687, 1.2195068
0.9782040433492512, 1.8292601999999998
1.381073088850826, 2.4390136
1.8600151815917343, 3.048767
2.4524665786884725, 3.6585203999999996
3.2020205981098115, 4.2682738
4.184256831649691, 4.8780272
5.550504429265857, 5.487780599999999
7.62943469453603, 6.097534
114.44152041804045, 12.195068
*Connector Behavior, name=ConnSect-98
*Connector Elasticity, nonlinear, component=1
0.0, 0.0
0.07982450370036531, 1.257884
0.162970300152665, 2.515768
0.25269240722991526, 3.773652
0.3525473948684521, 5.031536
0.4691288631875068, 6.28942
0.6119791214587167, 7.547304
0.7951498264446855, 8.805188
1.0426402150187641, 10.063072
1.415794831700623, 11.320955999999999
2.04422467504628, 12.57884
30.6633701256942, 25.15768
*Connector Behavior, name=ConnSect-99
*Connector Elasticity, nonlinear, component=1
0.0, 0.0
0.3565387669368647, 0.9555210000000001
0.7313099195016548, 1.9110420000000001
1.131067328969948, 2.866563
1.5837003593333066, 3.8220840000000003
2.1153021953068674, 4.777605
2.7680909261107445, 5.733126
3.600885102059692, 6.6886470000000005
4.71348874270916, 7.6441680000000005
6.307897274382412, 8.599689000000001
8.811714360490441, 9.55521
132.17571540735662, 19.11042
*Connector Behavior, name=ConnSect-100
*Connector Elasticity, nonlinear, component=1
0.0, 0.0
0.3458409628365189, 0.9545413
0.70928581408225, 1.9090826
1.096998093998991, 2.8636239
1.5358540986198932, 3.8181652
2.0511906768660992, 4.7727065
2.6839683414436877, 5.7272478
3.4914538264274597, 6.6817891000000005
4.570572928059846, 7.6363304
6.11893308814615, 8.5908717
8.553470252081752, 9.545413
128.30205378122628, 19.090826
*Connector Behavior, name=ConnSect-101
*Connector Elasticity, nonlinear, component=1
0.0, 0.0
0.353978575731162, 0.8388610999999999
0.7260188431246206, 1.6777221999999998
1.1237119178986177, 2.5165832999999997
1.5777115186210722, 3.3554443999999997
2.113084337906912, 4.1943055
2.7721613878384233, 5.0331665999999995
3.610639541875571, 5.872027699999999
4.723846795968711, 6.710888799999999
6.303036352619529, 7.549749899999999
8.757028845138848, 8.388611
131.35543267708272, 16.777222
*Connector Behavior, name=ConnSect-102
*Connector Elasticity, nonlinear, component=1
0.0, 0.0
0.08709959729458205, 1.346449
0.17792741346056573, 2.692898
0.27555754058994353, 4.039347
0.38421738281613216, 5.385796
0.5107903416501358, 6.732245000000001
0.665891493554227, 8.078694
0.865070687723346, 9.425143
1.1357097537256777, 10.771592
1.5462431474588811, 12.118041
2.243560884380713, 13.464490000000001
33.6534132657107, 26.92898
*Connector Behavior, name=ConnSect-103
*Connector Elasticity, nonlinear, component=1
0.0, 0.0
0.340424885507673, 0.8978109
0.6981017941143364, 1.7956218
1.0800256131915376, 2.6934327
1.5141967742238194, 3.5912436
2.02501832973212, 4.4890545
2.653149131219834, 5.3868654
3.4538679756224155, 6.284676299999999
4.521241353359073, 7.1824872
6.047313800081611, 8.0802981
8.438826771453023, 8.978109
126.58240157179534, 17.956218
*Connector Behavior, name=ConnSect-104
*Connector Elasticity, nonlinear, component=1
0.0, 0.0
0.318785932904575, 1.045264
0.6536419823532924, 2.090528
1.0103779641212896, 3.135792
1.4105964510235935, 4.181056
1.8786327564157546, 5.22632
2.451712207403034, 6.271584
3.1851709354668856, 7.316848
4.170975007582456, 8.362112
5.601180600933731, 9.407376000000001
7.873681606724858, 10.45264
118.10522410087287, 20.90528
*Connector Behavior, name=ConnSect-105
*Connector Elasticity, nonlinear, component=1
0.0, 0.0
0.3409909550100565, 0.9351672000000001
0.6992894486756995, 1.8703344000000002
1.0816450958373025, 2.8055016000000004
1.5150262333918363, 3.7406688000000003
2.024240529863164, 4.675836
2.64979200437665, 5.611003200000001
3.447839117143303, 6.546170399999999
4.513529711402953, 7.481337600000001
6.041358574293554, 8.416504800000002
8.441811078228056, 9.351672
126.62716617342085, 18.703344
*Connector Behavior, name=ConnSect-106
*Connector Elasticity, nonlinear, component=1
0.0, 0.0
0.19971806977991946, 1.0805500000000001
0.4087929119123146, 2.1611000000000002
0.6320495594991371, 3.24165
0.8797632472123951, 4.3222000000000005
1.1682536569423974, 5.40275
1.5203244402073324, 6.4833
1.9726961909327656, 7.56385
2.5833630934357643, 8.644400000000001
3.486151690594852, 9.72495
4.945325781591237, 10.8055
74.17988672386855, 21.611
*Connector Behavior, name=ConnSect-107
*Connector Elasticity, nonlinear, component=1
0.0, 0.0
0.26363053621025756, 1.077336
0.540158107469324, 2.154672
0.83491402619984, 3.2320080000000004
1.1638455180218443, 4.309344
1.5476573025807738, 5.38668
2.0168439368717372, 6.464016000000001
2.6185662136413157, 7.541352000000001
3.4294274519197643, 8.618688
4.616753722075373, 9.696024
6.519252201542258, 10.77336
97.78878302313387, 21.54672
*Connector Behavior, name=ConnSect-108
*Connector Elasticity, nonlinear, component=1
0.0, 0.0
0.27018244509235956, 1.07546
0.5536407115869224, 2.15092
0.8557530236430466, 3.2263800000000002
1.1930912296520546, 4.30184
1.5868090849835426, 5.3773
2.06818847800605, 6.4527600000000005
2.6853897725231946, 7.52822
3.516869037412107, 8.60368
4.7329455264844, 9.67914
6.679420475848019, 10.7546
100.19130713772029, 21.5092
*Connector Behavior, name=ConnSect-109
*Connector Elasticity, nonlinear, component=1
0.0, 0.0
0.21478952476172708, 1.0790229999999998
0.4397074008011259, 2.1580459999999997
0.6797257083235309, 3.2370689999999995
0.9461652371101081, 4.316091999999999
1.256447721971199, 5.395115
1.6351419617421925, 6.474137999999999
2.1217540779616684, 7.553161
2.7788037550635636, 8.632183999999999
3.749608586076647, 9.711206999999998
5.3173338528722525, 10.79023
79.76000779308379, 21.58046
*Connector Behavior, name=ConnSect-110
*Connector Elasticity, nonlinear, component=1
0.0, 0.0
0.07308561180252582, 1.192469
0.1491202783654444, 2.384938
0.2314820812898688, 3.577407
0.3231652226531878, 4.769876
0.43043532059527934, 5.962345
0.5618921204586513, 7.154814
0.7302193262148649, 8.347283000000001
0.9565093205310404, 9.539752
1.296043919865042, 10.732221
1.8640731286723167, 11.92469
27.96109693008475, 23.84938
*Material, name=GOLD
*Density
1.42e-09,
*Elastic
54000., 0.4
*Material, name=MATERIAL-1
*Density
0.0001,
*Elastic
1e+06, 0.3
*Material, name=PI-2545
*Density
1.42e-09,
*Elastic
2300., 0.34
*Material, name=PI-2611
*Density
1.4e-09,
*Elastic
8000., 0.34
*Boundary
SET-6, 3, 3
*Boundary
SET-1, 1, 1
*Boundary
SET-1, 2, 2
*Step, name=Step-1, nlgeom=YES, inc=800
*Dynamic, application=QUASI-STATIC, initial=NO
0.001,1.,1e-7
*Boundary
SET-2, 1, 1, 34.0326635109489
SET-2, 2, 2
*Restart, write, frequency=0
*Output, field, variable=PRESELECT
*Output, field, number interval=1
*Node Output, nset=SET-CENTERNODES
COORD,
*Output, history, variable=PRESELECT, frequency=1
*End Step
*Step, name=Step-2, nlgeom=YES, inc=800
*Dynamic, application=QUASI-STATIC, initial=NO
0.001,1.,1e-7
*Boundary, op=NEW
*Boundary, op=NEW
*Boundary, op=NEW
SET-3, 2, 2
*Boundary, op=NEW, fixed
SET-4, 1, 1
*Boundary, op=NEW
SET-5, 2, 2, -48.340709
*Restart, write, frequency=0
*Output, field, variable=PRESELECT
*Output, history, variable=PRESELECT, frequency=1
*Output, field, frequency=99999
*Node Output, nset=SET-CENTERNODES
COORD,
*End Step
